<?xml version="1.0" encoding="UTF-8"?>

<!-- generated on 2026-03-18T17:35:24.573598+05:30 by Eclipse SUMO netconvert 1.25.0
<netconvertConfiguration xmlns:xsi="http://www.w3.org/2001/XMLSchema-instance" xsi:noNamespaceSchemaLocation="http://sumo.dlr.de/xsd/netconvertConfiguration.xsd">

    <input>
        <node-files value="C:/Users/ututk/OneDrive/Desktop/ATSC/sumo_configs/intersection.nod.xml"/>
        <edge-files value="C:/Users/ututk/OneDrive/Desktop/ATSC/sumo_configs/intersection.edg.xml"/>
        <connection-files value="C:/Users/ututk/OneDrive/Desktop/ATSC/sumo_configs/intersection.con.xml"/>
    </input>

    <output>
        <output-file value="C:/Users/ututk/OneDrive/Desktop/ATSC/sumo_configs/intersection.net.xml"/>
    </output>

    <tls_building>
        <tls.default-type value="actuated"/>
    </tls_building>

    <junctions>
        <no-turnarounds value="true"/>
    </junctions>

</netconvertConfiguration>
-->

<net version="1.20" junctionCornerDetail="5" limitTurnSpeed="5.50" xmlns:xsi="http://www.w3.org/2001/XMLSchema-instance" xsi:noNamespaceSchemaLocation="http://sumo.dlr.de/xsd/net_file.xsd">

    <location netOffset="500.00,500.00" convBoundary="0.00,0.00,1000.00,1000.00" origBoundary="-500.00,-500.00,500.00,500.00" projParameter="!"/>

    <edge id=":C_0" function="internal">
        <lane id=":C_0_0" index="0" speed="6.51" length="9.03" shape="488.80,516.80 488.45,514.35 487.40,512.60 485.65,511.55 483.20,511.20"/>
    </edge>
    <edge id=":C_1" function="internal">
        <lane id=":C_1_0" index="0" speed="13.89" length="33.60" shape="492.00,516.80 492.00,483.20"/>
        <lane id=":C_1_1" index="1" speed="13.89" length="33.60" shape="495.20,516.80 495.20,483.20"/>
    </edge>
    <edge id=":C_3" function="internal">
        <lane id=":C_3_0" index="0" speed="11.36" length="13.36" shape="498.40,516.80 499.55,508.75 502.24,504.26"/>
    </edge>
    <edge id=":C_16" function="internal">
        <lane id=":C_16_0" index="0" speed="11.36" length="16.31" shape="502.24,504.26 503.00,503.00 508.75,499.55 516.80,498.40"/>
    </edge>
    <edge id=":C_4" function="internal">
        <lane id=":C_4_0" index="0" speed="6.51" length="9.03" shape="516.80,511.20 514.35,511.55 512.60,512.60 511.55,514.35 511.20,516.80"/>
    </edge>
    <edge id=":C_5" function="internal">
        <lane id=":C_5_0" index="0" speed="13.89" length="33.60" shape="516.80,508.00 483.20,508.00"/>
        <lane id=":C_5_1" index="1" speed="13.89" length="33.60" shape="516.80,504.80 483.20,504.80"/>
    </edge>
    <edge id=":C_7" function="internal">
        <lane id=":C_7_0" index="0" speed="11.36" length="13.36" shape="516.80,501.60 508.75,500.45 504.26,497.76"/>
    </edge>
    <edge id=":C_17" function="internal">
        <lane id=":C_17_0" index="0" speed="11.36" length="16.31" shape="504.26,497.76 503.00,497.00 499.55,491.25 498.40,483.20"/>
    </edge>
    <edge id=":C_8" function="internal">
        <lane id=":C_8_0" index="0" speed="6.51" length="9.03" shape="511.20,483.20 511.55,485.65 512.60,487.40 514.35,488.45 516.80,488.80"/>
    </edge>
    <edge id=":C_9" function="internal">
        <lane id=":C_9_0" index="0" speed="13.89" length="33.60" shape="508.00,483.20 508.00,516.80"/>
        <lane id=":C_9_1" index="1" speed="13.89" length="33.60" shape="504.80,483.20 504.80,516.80"/>
    </edge>
    <edge id=":C_11" function="internal">
        <lane id=":C_11_0" index="0" speed="11.36" length="13.36" shape="501.60,483.20 500.45,491.25 497.76,495.74"/>
    </edge>
    <edge id=":C_18" function="internal">
        <lane id=":C_18_0" index="0" speed="11.36" length="16.31" shape="497.76,495.74 497.00,497.00 491.25,500.45 483.20,501.60"/>
    </edge>
    <edge id=":C_12" function="internal">
        <lane id=":C_12_0" index="0" speed="6.51" length="9.03" shape="483.20,488.80 485.65,488.45 487.40,487.40 488.45,485.65 488.80,483.20"/>
    </edge>
    <edge id=":C_13" function="internal">
        <lane id=":C_13_0" index="0" speed="13.89" length="33.60" shape="483.20,492.00 516.80,492.00"/>
        <lane id=":C_13_1" index="1" speed="13.89" length="33.60" shape="483.20,495.20 516.80,495.20"/>
    </edge>
    <edge id=":C_15" function="internal">
        <lane id=":C_15_0" index="0" speed="11.36" length="13.36" shape="483.20,498.40 491.25,499.55 495.74,502.24"/>
    </edge>
    <edge id=":C_19" function="internal">
        <lane id=":C_19_0" index="0" speed="11.36" length="16.31" shape="495.74,502.24 497.00,503.00 500.45,508.75 501.60,516.80"/>
    </edge>

    <edge id="C2E" from="C" to="E" priority="1" spreadType="center" shape="500.00,493.60 1000.08,493.60">
        <lane id="C2E_0" index="0" speed="13.89" length="483.28" shape="516.80,488.80 1000.08,488.80"/>
        <lane id="C2E_1" index="1" speed="13.89" length="483.28" shape="516.80,492.00 1000.08,492.00"/>
        <lane id="C2E_2" index="2" speed="13.89" length="483.28" shape="516.80,495.20 1000.08,495.20"/>
        <lane id="C2E_3" index="3" speed="13.89" length="483.28" shape="516.80,498.40 1000.08,498.40"/>
    </edge>
    <edge id="C2N" from="C" to="N" priority="1" spreadType="center" shape="506.40,500.00 506.40,1000.08">
        <lane id="C2N_0" index="0" speed="13.89" length="483.28" shape="511.20,516.80 511.20,1000.08"/>
        <lane id="C2N_1" index="1" speed="13.89" length="483.28" shape="508.00,516.80 508.00,1000.08"/>
        <lane id="C2N_2" index="2" speed="13.89" length="483.28" shape="504.80,516.80 504.80,1000.08"/>
        <lane id="C2N_3" index="3" speed="13.89" length="483.28" shape="501.60,516.80 501.60,1000.08"/>
    </edge>
    <edge id="C2S" from="C" to="S" priority="1" spreadType="center" shape="493.60,500.00 493.60,-0.08">
        <lane id="C2S_0" index="0" speed="13.89" length="483.28" shape="488.80,483.20 488.80,-0.08"/>
        <lane id="C2S_1" index="1" speed="13.89" length="483.28" shape="492.00,483.20 492.00,-0.08"/>
        <lane id="C2S_2" index="2" speed="13.89" length="483.28" shape="495.20,483.20 495.20,-0.08"/>
        <lane id="C2S_3" index="3" speed="13.89" length="483.28" shape="498.40,483.20 498.40,-0.08"/>
    </edge>
    <edge id="C2W" from="C" to="W" priority="1" spreadType="center" shape="500.00,506.40 -0.08,506.40">
        <lane id="C2W_0" index="0" speed="13.89" length="483.28" shape="483.20,511.20 -0.08,511.20"/>
        <lane id="C2W_1" index="1" speed="13.89" length="483.28" shape="483.20,508.00 -0.08,508.00"/>
        <lane id="C2W_2" index="2" speed="13.89" length="483.28" shape="483.20,504.80 -0.08,504.80"/>
        <lane id="C2W_3" index="3" speed="13.89" length="483.28" shape="483.20,501.60 -0.08,501.60"/>
    </edge>
    <edge id="E2C" from="E" to="C" priority="1" spreadType="center" shape="1000.08,506.40 500.00,506.40">
        <lane id="E2C_0" index="0" speed="13.89" length="483.28" shape="1000.08,511.20 516.80,511.20"/>
        <lane id="E2C_1" index="1" speed="13.89" length="483.28" shape="1000.08,508.00 516.80,508.00"/>
        <lane id="E2C_2" index="2" speed="13.89" length="483.28" shape="1000.08,504.80 516.80,504.80"/>
        <lane id="E2C_3" index="3" speed="13.89" length="483.28" shape="1000.08,501.60 516.80,501.60"/>
    </edge>
    <edge id="N2C" from="N" to="C" priority="1" spreadType="center" shape="493.60,1000.08 493.60,500.00">
        <lane id="N2C_0" index="0" speed="13.89" length="483.28" shape="488.80,1000.08 488.80,516.80"/>
        <lane id="N2C_1" index="1" speed="13.89" length="483.28" shape="492.00,1000.08 492.00,516.80"/>
        <lane id="N2C_2" index="2" speed="13.89" length="483.28" shape="495.20,1000.08 495.20,516.80"/>
        <lane id="N2C_3" index="3" speed="13.89" length="483.28" shape="498.40,1000.08 498.40,516.80"/>
    </edge>
    <edge id="S2C" from="S" to="C" priority="1" spreadType="center" shape="506.40,-0.08 506.40,500.00">
        <lane id="S2C_0" index="0" speed="13.89" length="483.28" shape="511.20,-0.08 511.20,483.20"/>
        <lane id="S2C_1" index="1" speed="13.89" length="483.28" shape="508.00,-0.08 508.00,483.20"/>
        <lane id="S2C_2" index="2" speed="13.89" length="483.28" shape="504.80,-0.08 504.80,483.20"/>
        <lane id="S2C_3" index="3" speed="13.89" length="483.28" shape="501.60,-0.08 501.60,483.20"/>
    </edge>
    <edge id="W2C" from="W" to="C" priority="1" spreadType="center" shape="-0.08,493.60 500.00,493.60">
        <lane id="W2C_0" index="0" speed="13.89" length="483.28" shape="-0.08,488.80 483.20,488.80"/>
        <lane id="W2C_1" index="1" speed="13.89" length="483.28" shape="-0.08,492.00 483.20,492.00"/>
        <lane id="W2C_2" index="2" speed="13.89" length="483.28" shape="-0.08,495.20 483.20,495.20"/>
        <lane id="W2C_3" index="3" speed="13.89" length="483.28" shape="-0.08,498.40 483.20,498.40"/>
    </edge>

    <tlLogic id="C" type="actuated" programID="0" offset="0">
        <phase duration="33" state="GGGgGrrrGGGgGrrr" minDur="5" maxDur="50"/>
        <phase duration="3"  state="yyygyrrryyygyrrr"/>
        <phase duration="6"  state="rrrGrrrrrrrGrrrr" minDur="5" maxDur="50"/>
        <phase duration="3"  state="rrryrrrrrrryrrrr"/>
        <phase duration="33" state="GrrrGGGgGrrrGGGg" minDur="5" maxDur="50"/>
        <phase duration="3"  state="yrrryyygyrrryyyg"/>
        <phase duration="6"  state="rrrrrrrGrrrrrrrG" minDur="5" maxDur="50"/>
        <phase duration="3"  state="rrrrrrryrrrrrrry"/>
    </tlLogic>

    <junction id="C" type="traffic_light" x="500.00" y="500.00" incLanes="N2C_0 N2C_1 N2C_2 N2C_3 E2C_0 E2C_1 E2C_2 E2C_3 S2C_0 S2C_1 S2C_2 S2C_3 W2C_0 W2C_1 W2C_2 W2C_3" intLanes=":C_0_0 :C_1_0 :C_1_1 :C_16_0 :C_4_0 :C_5_0 :C_5_1 :C_17_0 :C_8_0 :C_9_0 :C_9_1 :C_18_0 :C_12_0 :C_13_0 :C_13_1 :C_19_0" shape="487.20,516.80 512.80,516.80 513.24,514.58 513.80,513.80 514.58,513.24 515.58,512.91 516.80,512.80 516.80,487.20 514.58,486.76 513.80,486.20 513.24,485.42 512.91,484.42 512.80,483.20 487.20,483.20 486.76,485.42 486.20,486.20 485.42,486.76 484.42,487.09 483.20,487.20 483.20,512.80 485.42,513.24 486.20,513.80 486.76,514.58 487.09,515.58">
        <request index="0"  response="0000000000000000" foes="0000000000000000" cont="0"/>
        <request index="1"  response="1000000000000000" foes="1110100001100000" cont="0"/>
        <request index="2"  response="1000000000000000" foes="1110100001100000" cont="0"/>
        <request index="3"  response="1000011010000000" foes="1000011011100000" cont="1"/>
        <request index="4"  response="0000000000000000" foes="0000000000000000" cont="0"/>
        <request index="5"  response="0000011000001110" foes="1000011000001110" cont="0"/>
        <request index="6"  response="0000011000001110" foes="1000011000001110" cont="0"/>
        <request index="7"  response="0110111000001000" foes="0110111000001000" cont="1"/>
        <request index="8"  response="0000000000000000" foes="0000000000000000" cont="0"/>
        <request index="9"  response="0000000010000000" foes="0110000011101000" cont="0"/>
        <request index="10" response="0000000010000000" foes="0110000011101000" cont="0"/>
        <request index="11" response="1000000010000110" foes="1110000010000110" cont="1"/>
        <request index="12" response="0000000000000000" foes="0000000000000000" cont="0"/>
        <request index="13" response="0000111000000110" foes="0000111010000110" cont="0"/>
        <request index="14" response="0000111000000110" foes="0000111010000110" cont="0"/>
        <request index="15" response="0000100001101110" foes="0000100001101110" cont="1"/>
    </junction>
    <junction id="E" type="dead_end" x="1000.00" y="500.00" incLanes="C2E_0 C2E_1 C2E_2 C2E_3" intLanes="" shape="1000.00,500.00 1000.00,487.20 1000.00,500.00"/>
    <junction id="N" type="dead_end" x="500.00" y="1000.00" incLanes="C2N_0 C2N_1 C2N_2 C2N_3" intLanes="" shape="500.00,1000.00 512.80,1000.00 500.00,1000.00"/>
    <junction id="S" type="dead_end" x="500.00" y="0.00" incLanes="C2S_0 C2S_1 C2S_2 C2S_3" intLanes="" shape="500.00,0.00 487.20,0.00 500.00,0.00"/>
    <junction id="W" type="dead_end" x="0.00" y="500.00" incLanes="C2W_0 C2W_1 C2W_2 C2W_3" intLanes="" shape="0.00,500.00 0.00,512.80 0.00,500.00"/>

    <junction id=":C_16_0" type="internal" x="502.24" y="504.26" incLanes=":C_3_0 S2C_1 S2C_2" intLanes=":C_5_0 :C_5_1 :C_7_0 :C_9_0 :C_9_1 :C_15_0"/>
    <junction id=":C_17_0" type="internal" x="504.26" y="497.76" incLanes=":C_7_0 W2C_1 W2C_2" intLanes=":C_3_0 :C_9_0 :C_9_1 :C_11_0 :C_13_0 :C_13_1"/>
    <junction id=":C_18_0" type="internal" x="497.76" y="495.74" incLanes=":C_11_0 N2C_1 N2C_2" intLanes=":C_1_0 :C_1_1 :C_7_0 :C_13_0 :C_13_1 :C_15_0"/>
    <junction id=":C_19_0" type="internal" x="495.74" y="502.24" incLanes=":C_15_0 E2C_1 E2C_2" intLanes=":C_1_0 :C_1_1 :C_3_0 :C_5_0 :C_5_1 :C_11_0"/>

    <connection from="E2C" to="C2N" fromLane="0" toLane="0" via=":C_4_0" tl="C" linkIndex="4" dir="r" state="O"/>
    <connection from="E2C" to="C2W" fromLane="1" toLane="1" via=":C_5_0" tl="C" linkIndex="5" dir="s" state="o"/>
    <connection from="E2C" to="C2W" fromLane="2" toLane="2" via=":C_5_1" tl="C" linkIndex="6" dir="s" state="o"/>
    <connection from="E2C" to="C2S" fromLane="3" toLane="3" via=":C_7_0" tl="C" linkIndex="7" dir="l" state="o"/>
    <connection from="N2C" to="C2W" fromLane="0" toLane="0" via=":C_0_0" tl="C" linkIndex="0" dir="r" state="O"/>
    <connection from="N2C" to="C2S" fromLane="1" toLane="1" via=":C_1_0" tl="C" linkIndex="1" dir="s" state="O"/>
    <connection from="N2C" to="C2S" fromLane="2" toLane="2" via=":C_1_1" tl="C" linkIndex="2" dir="s" state="O"/>
    <connection from="N2C" to="C2E" fromLane="3" toLane="3" via=":C_3_0" tl="C" linkIndex="3" dir="l" state="o"/>
    <connection from="S2C" to="C2E" fromLane="0" toLane="0" via=":C_8_0" tl="C" linkIndex="8" dir="r" state="O"/>
    <connection from="S2C" to="C2N" fromLane="1" toLane="1" via=":C_9_0" tl="C" linkIndex="9" dir="s" state="O"/>
    <connection from="S2C" to="C2N" fromLane="2" toLane="2" via=":C_9_1" tl="C" linkIndex="10" dir="s" state="O"/>
    <connection from="S2C" to="C2W" fromLane="3" toLane="3" via=":C_11_0" tl="C" linkIndex="11" dir="l" state="o"/>
    <connection from="W2C" to="C2S" fromLane="0" toLane="0" via=":C_12_0" tl="C" linkIndex="12" dir="r" state="O"/>
    <connection from="W2C" to="C2E" fromLane="1" toLane="1" via=":C_13_0" tl="C" linkIndex="13" dir="s" state="o"/>
    <connection from="W2C" to="C2E" fromLane="2" toLane="2" via=":C_13_1" tl="C" linkIndex="14" dir="s" state="o"/>
    <connection from="W2C" to="C2N" fromLane="3" toLane="3" via=":C_15_0" tl="C" linkIndex="15" dir="l" state="o"/>

    <connection from=":C_0" to="C2W" fromLane="0" toLane="0" dir="r" state="M"/>
    <connection from=":C_1" to="C2S" fromLane="0" toLane="1" dir="s" state="M"/>
    <connection from=":C_1" to="C2S" fromLane="1" toLane="2" dir="s" state="M"/>
    <connection from=":C_3" to="C2E" fromLane="0" toLane="3" via=":C_16_0" dir="l" state="m"/>
    <connection from=":C_16" to="C2E" fromLane="0" toLane="3" dir="l" state="M"/>
    <connection from=":C_4" to="C2N" fromLane="0" toLane="0" dir="r" state="M"/>
    <connection from=":C_5" to="C2W" fromLane="0" toLane="1" dir="s" state="M"/>
    <connection from=":C_5" to="C2W" fromLane="1" toLane="2" dir="s" state="M"/>
    <connection from=":C_7" to="C2S" fromLane="0" toLane="3" via=":C_17_0" dir="l" state="m"/>
    <connection from=":C_17" to="C2S" fromLane="0" toLane="3" dir="l" state="M"/>
    <connection from=":C_8" to="C2E" fromLane="0" toLane="0" dir="r" state="M"/>
    <connection from=":C_9" to="C2N" fromLane="0" toLane="1" dir="s" state="M"/>
    <connection from=":C_9" to="C2N" fromLane="1" toLane="2" dir="s" state="M"/>
    <connection from=":C_11" to="C2W" fromLane="0" toLane="3" via=":C_18_0" dir="l" state="m"/>
    <connection from=":C_18" to="C2W" fromLane="0" toLane="3" dir="l" state="M"/>
    <connection from=":C_12" to="C2S" fromLane="0" toLane="0" dir="r" state="M"/>
    <connection from=":C_13" to="C2E" fromLane="0" toLane="1" dir="s" state="M"/>
    <connection from=":C_13" to="C2E" fromLane="1" toLane="2" dir="s" state="M"/>
    <connection from=":C_15" to="C2N" fromLane="0" toLane="3" via=":C_19_0" dir="l" state="m"/>
    <connection from=":C_19" to="C2N" fromLane="0" toLane="3" dir="l" state="M"/>

</net>
