<?xml version="1.0" encoding="UTF-8"?>
<nodes xmlns:xsi="http://www.w3.org/2001/XMLSchema-instance"
       xsi:noNamespaceSchemaLocation="http://sumo.dlr.de/xsd/nodes_file.xsd">

    <!-- Central junction with traffic light -->
    <node id="C" x="0"    y="0"    type="traffic_light"/>

    <!-- Dead-end boundary nodes (500m arms) -->
    <node id="N" x="0"    y="500"  type="dead_end"/>
    <node id="S" x="0"    y="-500" type="dead_end"/>
    <node id="E" x="500"  y="0"    type="dead_end"/>
    <node id="W" x="-500" y="0"    type="dead_end"/>

</nodes>
